13
Coordinates from ORCA-job orca
  C   -1.97276164690170      0.27663727240727     -1.04131466211750
  C   -0.49818799755277     -0.11411618921482     -0.98507211569431
  C   -0.03587438885745     -0.41020378367438      0.43527178915999
  H   -0.11644461267501      0.46907458370265      1.07610536300094
  H   1.01486521279878     -0.70794901397062      0.45931548026018
  H   -0.62128663336018     -1.21962472459504      0.87635009840700
  O   -0.37164971096170     -1.24094038165443     -1.82347603729707
  H   0.08744841007599      0.73398459413895     -1.37118284805090
  H   0.54523308888017     -1.52259123828272     -1.82578382452306
  O   -2.25050971946799      1.46311398595576     -0.34273815792887
  H   -2.57899994661227     -0.57010915298655     -0.68791832641696
  H   -2.25079658207688      0.45211314948172     -2.08210810691800
  H   -2.22584991628899      1.28088421569220      0.59825037511855
