13
Coordinates from ORCA-job orca
  C   -1.87168566744969      0.52306952647940     -1.06454285161116
  C   -0.52991801148108     -0.20797827393323     -1.00638488246850
  C   0.19247125401512     -0.03270135116726      0.31890954285142
  H   0.33057851274300      1.02245084840137      0.55431917283198
  H   1.18494735002484     -0.48831950583856      0.27936556087965
  H   -0.35450961653744     -0.48648773193232      1.14442016838558
  O   -0.77731578369619     -1.56548125231778     -1.32234692926224
  H   0.09871426908518      0.23903786981131     -1.79307049564601
  H   0.02337925846882     -2.06997193969617     -1.16246342452220
  O   -2.55553626710139      0.60268956483130      0.15951760954423
  H   -2.48072154915942      0.07544951391934     -1.86015302123188
  H   -1.68095436842633      1.55783034352807     -1.35630681286795
  H   -2.85426382348540     -0.27931429508549      0.39443539011708
