13
Coordinates from ORCA-job orca
  C   -1.93012436072465      0.39315966638731     -1.10278903934514
  C   -0.48821470934355     -0.15325600467872     -1.01118382457925
  C   0.03191688723097     -0.22528139571238      0.41827166796908
  H   0.07425613145258      0.75907697101142      0.88263731021043
  H   1.04575685537093     -0.63106572931369      0.43517167554747
  H   -0.58393242968310     -0.88067176778512      1.03905926711982
  O   -0.53265710997874     -1.43702406801330     -1.60038824567752
  H   0.18250261655063      0.51008763883614     -1.57656695368122
  H   0.36500597053962     -1.76361794683880     -1.69185873876617
  O   -2.34418847915765      1.17240129119286     -0.01090371320316
  H   -2.59040873996616     -0.47107848192523     -1.25170749168204
  H   -2.03221166043217      1.02276837190039     -1.98736594807108
  H   -2.47251541485871      0.59477477193911      0.74332306115879
