13
Coordinates from ORCA-job orca
  C   -1.94014691731497      0.35944262691562     -1.09533508479512
  C   -0.48643917261002     -0.13780105447718     -1.00870936919669
  C   0.00414989204116     -0.26839111093546      0.42738238190358
  H   0.03812126760866      0.69661718267563      0.93250523662050
  H   1.01849201499366     -0.67230144099191      0.45264307846091
  H   -0.62646190667087     -0.94928680209709      1.00480320874048
  O   -0.48690972564821     -1.39207776399075     -1.65859866367894
  H   0.17052480211465      0.57584634173181     -1.52728744318531
  H   0.42025363408104     -1.68984909591531     -1.75275677357336
  O   -2.31523818011149      1.25634952104792     -0.08290852853921
  H   -2.58368863592581     -0.53075930530405     -1.10173199160607
  H   -2.10024079867037      0.87072000511763     -2.04548243628722
  H   -2.38723071688740      0.77176421322314      0.74117541213646
